 .sdr file Watershed HRU:17 Subbasin:8 HRU:1 Luse:FRST Soil: Dystric Podzoluvisols3 Slope 25-35 2022/7/5 0:00:00 ArcSWAT 2012.10_2.19
     50.00    | RE: Effective radius of drains (mm)
  15000.00    | SDRAIN: Distance bwtween two drain tubes or tiles (mm)
     10.00    | DRAIN_CO: Drainage coefficient (mm/day)
      1.00    | PC: Pump capacity (def pump cap - 1.042mm/hr or 25mm/day)
      1.00    | LATKSATF: Multiplication factor to determine conk(j1,j) from sol_k(j1,k) for HRU
