 .Sol file Watershed HRU:24 Subbasin:10 HRU:2 Luse:FRST Soil: Haplic Phaeozems Slope: 0-5 2022/7/5 0:00:00 ArcSWAT 2012.10_2.19
 Soil Name: Haplic Phaeozems
 Soil Hydrologic Group: B
 Maximum rooting depth(mm) : 1000.00
 Porosity fraction from which anions are excluded: 0.500
 Crack volume potential of soil: 0.500
 Texture 1                : L-GR--SL-GR--SL-FSL
 Depth                [mm]:      300.00     1000.00
 Bulk Density Moist [g/cc]:        2.26        2.46
 Ave. AW Incl. Rock Frag  :        0.20  0.17092639
 Ksat. (est.)      [mm/hr]:       15.74   9.4414744
 Organic Carbon [weight %]:        1.95        0.67
 Clay           [weight %]:       23.00       23.00
 Silt           [weight %]:       39.00       37.00
 Sand           [weight %]:       38.00       40.00
 Rock Fragments   [vol. %]:        2.00        4.00
 Soil Albedo (Moist)      :        0.01        0.01
 Erosion K                :        0.13        0.17
 Salinity (EC, Form 5)    :        0.10        0.10
 Soil pH                  :        6.40        6.80
 Soil CACO3               :        0.00        0.10
                              
