 .Sol file Watershed HRU:49 Subbasin:19 HRU:2 Luse:FRST Soil: Dystric Podzoluvisols4 Slope: 0-5 2022/7/5 0:00:00 ArcSWAT 2012.10_2.19
 Soil Name: Dystric Podzoluvisols4
 Soil Hydrologic Group: C
 Maximum rooting depth(mm) : 1000.00
 Porosity fraction from which anions are excluded: 0.500
 Crack volume potential of soil: 0.500
 Texture 1                : L-GR--SL-GR--SL-FSL
 Depth                [mm]:      300.00     1000.00
 Bulk Density Moist [g/cc]:        1.46        1.00
 Ave. AW Incl. Rock Frag  :        0.14   0.1436155
 Ksat. (est.)      [mm/hr]:        5.45        1.61
 Organic Carbon [weight %]:        0.83        0.28
 Clay           [weight %]:       24.00       34.00
 Silt           [weight %]:       29.00       27.00
 Sand           [weight %]:       47.00       39.00
 Rock Fragments   [vol. %]:        5.00        6.00
 Soil Albedo (Moist)      :        0.01        0.01
 Erosion K                :        0.16        0.16
 Salinity (EC, Form 5)    :        0.10        0.10
 Soil pH                  :        6.30        7.00
 Soil CACO3               :        0.00        0.40
                              
