 .Wgn file Subbasin: 24 STATION NAME:54276 2022/7/5 0:00:00 ArcSWAT 2012.10_2.19
  LATITUDE =  42.35 LONGITUDE = 126.82
  ELEV [m] = 549.20
  RAIN_YRS =  10.00
 -8.40 -4.56  2.79 12.76 19.96 23.93 26.37 25.48 20.46 13.10  2.40 -5.80
-25.34-21.54-10.68 -1.12  5.13 11.05 15.90 14.64  6.08 -1.90-10.78-21.17
  5.65  5.96  5.72  6.10  5.00  3.82  2.93  3.14  3.88  5.90  6.54  6.01
  6.91  8.36  7.41  4.74  4.51  3.79  3.03  3.73  4.95  4.96  7.22  7.38
   7.5  10.7  19.0  42.7  77.0 118.4 186.8 164.3  63.0  37.9  26.5  12.2
  0.88  1.54  2.11  3.66  5.58  7.43 11.85 11.11  5.51  3.47  2.31  1.20
 11.98 11.14  7.55  4.85  3.77  2.91  3.44  3.54  5.02  5.61  3.96  5.83
  0.36  0.33  0.37  0.37  0.42  0.47  0.50  0.42  0.32  0.31  0.37  0.40
  0.62  0.61  0.57  0.59  0.66  0.75  0.75  0.72  0.61  0.54  0.62  0.63
 15.07 12.95 14.45 14.22 17.15 19.50 20.62 18.62 13.53 12.60 14.77 16.28
  1.03  1.56  2.58  4.63  7.50  9.67 14.59 14.74  7.06  4.60  3.06  1.59
  7.69 10.90 14.62 17.76 20.29 20.33 18.42 17.09 15.61 11.84  7.98  6.41
 70.00 67.31 63.11 58.36 62.66 74.76 81.92 83.93 78.48 69.35 71.32 71.29
  1.75  1.94  2.43  2.74  2.54  1.82  1.57  1.39  1.49  1.91  2.07  1.90
