 .Sol file Watershed HRU:60 Subbasin:24 HRU:1 Luse:FRST Soil: Dystric Podzoluvisols3 Slope: 25-35 2022/7/5 0:00:00 ArcSWAT 2012.10_2.19
 Soil Name: Dystric Podzoluvisols3
 Soil Hydrologic Group: C
 Maximum rooting depth(mm) : 1000.00
 Porosity fraction from which anions are excluded: 0.500
 Crack volume potential of soil: 0.500
 Texture 1                : L-GR--SL-GR--SL-FSL
 Depth                [mm]:      300.00     1000.00
 Bulk Density Moist [g/cc]:        1.00        1.00
 Ave. AW Incl. Rock Frag  :        0.13   0.1102225
 Ksat. (est.)      [mm/hr]:       10.82        6.90
 Organic Carbon [weight %]:        1.00        0.37
 Clay           [weight %]:       22.00       25.00
 Silt           [weight %]:       36.00       34.00
 Sand           [weight %]:       42.00       41.00
 Rock Fragments   [vol. %]:        9.00       12.00
 Soil Albedo (Moist)      :        0.01        0.01
 Erosion K                :        0.16        0.17
 Salinity (EC, Form 5)    :        0.10        0.10
 Soil pH                  :        6.60        7.00
 Soil CACO3               :        0.00        0.10
                              
