 .Wgn file Subbasin: 21 STATION NAME:54285 2022/7/5 0:00:00 ArcSWAT 2012.10_2.19
  LATITUDE =  42.53 LONGITUDE = 128.25
  ELEV [m] = 591.40
  RAIN_YRS =  10.00
 -8.81 -4.83  2.59 12.67 19.93 23.67 26.20 25.36 20.25 12.94  2.30 -6.13
-25.14-21.32-11.14 -2.00  4.22  9.97 14.82 13.94  5.57 -2.62-11.18-21.09
  5.46  5.83  5.72  6.27  5.25  4.02  3.13  3.22  3.93  6.01  6.57  6.04
  6.49  7.63  7.03  4.52  4.22  3.58  3.16  3.65  4.84  5.00  6.88  6.94
   6.7   9.6  16.4  38.2  76.0 109.5 156.4 142.9  64.5  32.5  23.0  10.6
  0.76  1.33  1.75  3.20  5.09  7.07  9.36 10.39  5.79  3.03  2.09  1.08
  8.45  9.26  7.29  5.04  3.26  3.24  3.18  4.17  4.73  5.67  4.52  5.90
  0.36  0.33  0.36  0.37  0.43  0.44  0.49  0.42  0.33  0.30  0.36  0.38
  0.57  0.55  0.57  0.59  0.66  0.76  0.75  0.75  0.67  0.53  0.58  0.58
 14.07 11.88 14.08 14.23 17.38 19.20 20.60 19.35 15.05 12.07 13.77 14.70
  0.88  1.52  2.21  4.05  6.46  9.06 12.12 14.19  7.32  4.08  2.66  1.39
  7.66 10.85 14.57 17.62 20.27 20.63 19.11 17.52 15.50 12.05  8.04  6.48
 69.67 66.32 62.22 58.57 62.96 76.61 83.10 84.73 79.39 68.16 70.34 71.01
  2.37  2.67  3.23  3.35  2.99  2.10  1.81  1.63  1.79  2.47  2.76  2.53
