 .Sol file Watershed HRU:76 Subbasin:29 HRU:4 Luse:FRST Soil: Haplic Luvisols2 Slope: 15-25 2022/7/5 0:00:00 ArcSWAT 2012.10_2.19
 Soil Name: Haplic Luvisols2
 Soil Hydrologic Group: C
 Maximum rooting depth(mm) : 1000.00
 Porosity fraction from which anions are excluded: 0.500
 Crack volume potential of soil: 0.500
 Texture 1                : L-GR--SL-GR--SL-FSL
 Depth                [mm]:      300.00     1000.00
 Bulk Density Moist [g/cc]:        2.26        1.00
 Ave. AW Incl. Rock Frag  :        0.19        0.08
 Ksat. (est.)      [mm/hr]:       10.73        3.93
 Organic Carbon [weight %]:        0.74        0.36
 Clay           [weight %]:       22.00       29.00
 Silt           [weight %]:       37.00       34.00
 Sand           [weight %]:       41.00       37.00
 Rock Fragments   [vol. %]:        4.00        3.00
 Soil Albedo (Moist)      :        0.01        0.01
 Erosion K                :        0.17        0.17
 Salinity (EC, Form 5)    :        0.10        0.10
 Soil pH                  :        6.50        6.70
 Soil CACO3               :        0.00        0.00
                              
