 .Sol file Watershed HRU:84 Subbasin:32 HRU:2 Luse:FRST Soil: Dystric Podzoluvisols2 Slope: 5-15 2022/7/5 0:00:00 ArcSWAT 2012.10_2.19
 Soil Name: Dystric Podzoluvisols2
 Soil Hydrologic Group: C
 Maximum rooting depth(mm) : 1000.00
 Porosity fraction from which anions are excluded: 0.500
 Crack volume potential of soil: 0.500
 Texture 1                : L-GR--SL-GR--SL-FSL
 Depth                [mm]:      300.00     1000.00
 Bulk Density Moist [g/cc]:        2.14        1.00
 Ave. AW Incl. Rock Frag  :        0.13        0.05
 Ksat. (est.)      [mm/hr]:        6.39        1.67
 Organic Carbon [weight %]:        0.82        0.38
 Clay           [weight %]:       18.00       32.00
 Silt           [weight %]:       45.00       35.00
 Sand           [weight %]:       37.00       33.00
 Rock Fragments   [vol. %]:        9.00       19.00
 Soil Albedo (Moist)      :        0.01        0.01
 Erosion K                :        0.17        0.16
 Salinity (EC, Form 5)    :        0.10        0.10
 Soil pH                  :        6.00        6.30
 Soil CACO3               :        0.00        0.00
                              
