 .Wgn file Subbasin: 36 STATION NAME:54284 2022/7/5 0:00:00 ArcSWAT 2012.10_2.19
  LATITUDE =  42.10 LONGITUDE = 127.57
  ELEV [m] = 774.20
  RAIN_YRS =  10.00
 -9.06 -5.55  1.47 11.47 18.65 22.63 25.29 24.49 19.33 12.07  1.64 -6.46
-21.42-18.15 -9.61 -0.34  5.88 11.14 15.66 14.53  6.82 -0.49 -9.09-18.02
  5.78  5.94  5.63  6.05  4.97  3.71  2.86  3.11  3.84  5.81  6.49  6.10
  6.19  7.00  6.39  4.74  4.06  3.35  2.81  3.50  4.55  4.94  6.59  6.64
  10.2  14.0  24.7  52.2  85.8 121.2 188.6 165.2  75.2  45.2  34.7  15.0
  0.99  1.74  2.30  4.20  5.61  7.38 11.04 11.78  6.51  3.77  2.90  1.32
  8.71 11.99  5.75  4.65  3.10  3.00  3.03  4.49  4.92  4.69  4.38  5.74
  0.43  0.41  0.41  0.40  0.45  0.52  0.50  0.43  0.34  0.33  0.40  0.46
  0.67  0.63  0.63  0.63  0.68  0.74  0.77  0.72  0.64  0.57  0.66  0.69
 17.50 14.78 16.38 15.58 18.08 20.05 21.23 18.85 14.53 13.43 16.15 18.67
  1.21  1.82  2.97  5.46  7.06  9.47 14.64 14.76  8.42  5.03  3.66  1.71
  7.79 10.95 14.59 17.76 20.33 20.74 19.09 17.82 15.93 12.05  8.09  6.58
 66.11 61.68 58.15 54.51 58.81 72.17 79.72 81.17 74.37 62.34 66.15 67.04
  2.23  2.50  2.94  3.31  3.15  2.37  2.13  1.90  2.04  2.59  2.66  2.42
